/*--------------------------------*- C++ -*----------------------------------*\
| =========                 |                                                 |
| \\      /  F ield         | OpenFOAM: The Open Source CFD Toolbox           |
|  \\    /   O peration     | Version:  2.4.0                                 |
|   \\  /    A nd           | Web:      www.OpenFOAM.org                      |
|    \\/     M anipulation  |                                                 |
\*---------------------------------------------------------------------------*/
FoamFile
{
    version     2.0;
    format      ascii;
    class       dictionary;
    location    "system";
    object      fvSolution;
}
// * * * * * * * * * * * * * * * * * * * * * * * * * * * * * * * * * * * * * //

solvers
{
    "alpha.floe.*"
    {
        nAlphaCorr      2;
        nAlphaSubCycles 1;
        cAlpha          1;
        alphaOuterCorrectors  1;

        isoFaceTol      1e-10;
        surfCellTol     1e-6;
        nAlphaBounds    3;
        snapTol         1e-6;
        clip            true;
        writeSurfCells  false;
        writeBoundedCells false;
        writeIsoFaces   false;

        solver          smoothSolver;
        smoother        symGaussSeidel;
        tolerance       1e-8;
        relTol          0;
    }

    alpha3
    {
        solver          PBiCG;
        preconditioner  DILU;
        tolerance       1e-8;
        relTol          0;
    }

    alpha3Final
    {
        $alpha3;
        relTol          0;
    }

    h
    {
        solver          GAMG;
        smoother        GaussSeidel;
        tolerance       1e-8;
        relTol          0;
    }

    hFinal
    {
        $h;
        relTol          0;
    }

    U
    {
        solver          GAMG;
        smoother        GaussSeidel;
        tolerance       1e-6;
        relTol          0;
    }

    UFinal
    {
        $U;
        relTol          0;
    }
}

SIMPLE
{
    nNonOrthogonalCorrectors 1;
}

 PIMPLE
 {
     momentumPredictor yes;
     nOuterCorrectors 10;
     nCorrectors     1;
     nNonOrthogonalCorrectors 1;
     nAlphaCorr  1;
     nAlphaSubCycles 1;
     residualControl
     {
         U
         {
                 tolerance  1e-4;
                 relTol     0;
         }
      }
 }

relaxationFactors
{
    equations
    {
        ".*" 1;
    }
}

// ************************************************************************* //
