/*--------------------------------*- C++ -*----------------------------------*
| =========                |                                                 |
| \      /  F ield         | OpenFOAM: The Open Source CFD Toolbox           |
|  \    /   O peration     | Version:  2106                                  |
|   \  /    A nd           | Web:      www.OpenFOAM.com                      |
|    \/     M anipulation  |                                                 |
*---------------------------------------------------------------------------*/
FoamFile
{
    version       2.0;
    format        ascii;
    class         dictionary;
    location      "constant";
    object        transportProperties;
}
// * * * * * * * * * * * * * * * * * * * * * * * * * * * * * * * * * * * * * //

phases (floe grease);

floe
{
   Cw              Cw [0 0 0 0 0 0 0] 0.005; // 0.0016-0.0050: Alberello et al., 2020 Drift of Pancake Ice Floes
   rho             rho [1 -3 0 0 0 0 0] 909;
}

   pstar           pstar [1 -1 -2 0 0 0 0] 27500;
   e               e [0 0 0 0 0 0 0] 2;
   DeltaMin        DeltaMin [0 0 -1 0 0 0 0] 2e-6;

grease
{
   Cw              Cw [0 0 0 0 0 0 0] 0.006; // 0.006: Smedsrud 2017. Grease-ice thickness parametrization
   rho             rho [1 -3 0 0 0 0 0] 916;
}

   K               K [0 0 1 0 0 0 0] 50;
   m               m [0 0 0 0 0 0 0] 0.5;
   etaNil0         etaNil0 [1 0 -1 0 0 0 0] 600;
   etaInf0         etaInf0 [1 0 -1 0 0 0 0] 6;
   hG0             hG0 [0 1 0 0 0 0 0] 0.10;
   alphaInf        alphaInf [0 0 0 0 0 0 0] 0.5;
   alphaNil        alphaNil [0 0 0 0 0 0 0] 0.5;

   sigma       0;

   // wind and water:
   rhoW            rhoW [1 -3 0 0 0 0 0] 1026;
   rhoA            rhoA [1 -3 0 0 0 0 0] 1.3;
   thetaW          thetaW [0 0 0 0 0 0 0] 0;  // wave turning radius in radians
   thetaA          thetaA [0 0 0 0 0 0 0] 0;  // air turning radius in radians
   g               g [0 1 -2 0 0 0 0] 9.81;
   kappa           kappa [0 0 0 0 0 0 0] 0.41;
   alphaW          alphaW [0 0 0 0 0 0 0] 0.011;
   C10             C10 [0 0 0 0 0 0 0] 0.0015;
   Ca_mult         Ca_mult [0 0 0 0 0 0 0] 1;

   // waves:
   lwave       lwave [0 1 0 0 0 0 0] 360; // wave length
   a           a [0 1 0 0 0 0 0] 0.8; // wave amplitude
   thetaWa     thetaWa [0 0 0 0 0 0 0] 3.14159265; // angle in radians
