/*--------------------------------*- C++ -*----------------------------------*\
| =========                 |                                                 |
| \\      /  F ield         | OpenFOAM: The Open Source CFD Toolbox           |
|  \\    /   O peration     | Version:  5                                     |
|   \\  /    A nd           | Web:      www.OpenFOAM.org                      |
|    \\/     M anipulation  |                                                 |
\*---------------------------------------------------------------------------*/
FoamFile
{
    version     2.0;
    format      ascii;
    class       dictionary;
    object      blockMeshDict;
}
// * * * * * * * * * * * * * * * * * * * * * * * * * * * * * * * * * * * * * //

scale 1;

vertices
(
    (0 0 0)
    (720 0 0)
    (720 720 0)
    (0 720 0)
    (0 0 1)
    (720 0 1)
    (720 720 1)
    (0 720 1)
);

blocks
(
    hex (0 1 2 3 4 5 6 7) (360 360 1) simpleGrading (1 1 1)
);

edges
(
);

boundary
(
    left
    {
        type        cyclic;
        neighbourPatch   right;
        faces           ((0 4 7 3));
    }

    right
    {
        type        cyclic;
        neighbourPatch   left;
        faces       ((1 2 6 5));
    }

    top
    {
        type        cyclic;
        neighbourPatch   bottom;
        faces       ((3 7 6 2));
    }

    bottom
    {
        type        cyclic;
        neighbourPatch   top;
        faces       ((0 1 5 4));
    }

    frontAndBack
    {
        type        empty;
        faces       ((5 6 7 4)(0 3 2 1));
    }
);

// ************************************************************************* //
