/*--------------------------------*- C++ -*----------------------------------*\
| =========                 |                                                 |
| \\      /  F ield         | OpenFOAM: The Open Source CFD Toolbox           |
|  \\    /   O peration     | Version:  v2106                                 |
|   \\  /    A nd           | Website:  www.openfoam.com                      |
|    \\/     M anipulation  |                                                 |
\*---------------------------------------------------------------------------*/
FoamFile
{
    version     2.0;
    format      ascii;
    arch        "LSB;label=32;scalar=64";
    class       polyBoundaryMesh;
    location    "constant/polyMesh";
    object      boundary;
}
// * * * * * * * * * * * * * * * * * * * * * * * * * * * * * * * * * * * * * //

5
(
    left
    {
        type            cyclic;
        inGroups        1(cyclic);
        nFaces          360;
        startFace       258480;
        matchTolerance  0.0001;
        transform       unknown;
        neighbourPatch  right;
    }
    right
    {
        type            cyclic;
        inGroups        1(cyclic);
        nFaces          360;
        startFace       258840;
        matchTolerance  0.0001;
        transform       unknown;
        neighbourPatch  left;
    }
    top
    {
        type            cyclic;
        inGroups        1(cyclic);
        nFaces          360;
        startFace       259200;
        matchTolerance  0.0001;
        transform       unknown;
        neighbourPatch  bottom;
    }
    bottom
    {
        type            cyclic;
        inGroups        1(cyclic);
        nFaces          360;
        startFace       259560;
        matchTolerance  0.0001;
        transform       unknown;
        neighbourPatch  top;
    }
    frontAndBack
    {
        type            empty;
        inGroups        1(empty);
        nFaces          259200;
        startFace       259920;
    }
)

// ************************************************************************* //
